DWP213621
     RDKit          3D

 27 30  0  0  0  0  0  0  0  0999 V2000
   -6.5822   -0.0164    0.4406 O   0  0  0  0  0  0  0  0  0  0  0  0
   -5.7895    0.9062   -0.0716 C   0  0  0  0  0  0  0  0  0  0  0  0
   -6.4983    2.0589   -0.5180 C   0  0  0  0  0  0  0  0  0  0  0  0
   -6.0257    3.1316   -1.0914 C   0  0  0  0  0  0  0  0  0  0  0  0
   -4.4282    0.5858   -0.0820 N   0  0  0  0  0  0  0  0  0  0  0  0
   -4.0329   -0.7465    0.3884 C   0  0  0  0  0  0  0  0  0  0  0  0
   -2.9226   -1.1885   -0.5867 C   0  0  0  0  0  0  0  0  0  0  0  0
   -3.4074    1.4867   -0.5117 C   0  0  0  0  0  0  0  0  0  0  0  0
   -2.0682    0.9537   -0.2172 C   0  0  0  0  0  0  0  0  0  0  0  0
   -1.7643   -0.3741   -0.2367 C   0  0  0  0  0  0  0  0  0  0  0  0
   -0.3743   -0.6839   -0.0217 C   0  0  0  0  0  0  0  0  0  0  0  0
    0.5677    0.2750   -0.3004 N   0  0  0  0  0  0  0  0  0  0  0  0
    1.8737    0.1599   -0.1457 C   0  0  0  0  0  0  0  0  0  0  0  0
    2.7181    1.2510   -0.4833 N   0  0  0  0  0  0  0  0  0  0  0  0
    4.1324    1.2663   -0.3687 C   0  0  0  0  0  0  0  0  0  0  0  0
    5.0071    0.3681    0.0428 N   0  0  0  0  0  0  0  0  0  0  0  0
    6.2686    0.6332    0.0507 C   0  0  0  0  0  0  0  0  0  0  0  0
    6.6717    1.8701   -0.3793 C   0  0  0  0  0  0  0  0  0  0  0  0
    8.0680    2.4148   -0.4648 C   0  0  0  0  0  0  0  0  0  0  0  0
    5.1647    2.5933   -0.7789 S   0  0  0  0  0  0  0  0  0  0  0  0
    2.3451   -1.0354    0.3431 C   0  0  0  0  0  0  0  0  0  0  0  0
    1.4869   -2.0686    0.6608 C   0  0  0  0  0  0  0  0  0  0  0  0
    0.1157   -1.8631    0.4682 C   0  0  0  0  0  0  0  0  0  0  0  0
   -0.7301   -2.8856    0.8396 C   0  0  0  0  0  0  0  0  0  0  0  0
   -0.2095   -4.0685    1.3741 C   0  0  0  0  0  0  0  0  0  0  0  0
    1.1350   -4.2817    1.5608 C   0  0  0  0  0  0  0  0  0  0  0  0
    1.9620   -3.2488    1.1896 C   0  0  0  0  0  0  0  0  0  0  0  0
  1  2  2  0
  2  3  1  0
  3  4  2  0
  2  5  1  0
  5  6  1  0
  6  7  1  0
  5  8  1  0
  8  9  1  0
  9 10  2  0
 10 11  1  0
 11 12  2  0
 12 13  1  0
 13 14  1  0
 14 15  1  0
 15 16  2  0
 16 17  1  0
 17 18  2  0
 18 19  1  0
 18 20  1  0
 13 21  2  0
 21 22  1  0
 22 23  2  0
 23 24  1  0
 24 25  2  0
 25 26  1  0
 26 27  2  0
 10  7  1  0
 23 11  1  0
 20 15  1  0
 27 22  1  0
M  END
$$$$
